namhyung/uftrace
myint/cppclean
boostorg/test
kennethreitz/pipenv
jupyterlab/jupyterlab
GPUOpen-LibrariesAndSDKs/RadeonRays_SDK
opencv/opencv
abseil/abseil-cpp
ainfosec/ci_helloworld
JochenKalmbach/StackWalker
boostorg/stacktrace
python-tap/pytest-tap
python-tap/tappy
python-tap/nose-tap
OpenFAST/openfast
NaluCFD/Nalu
statsmodels/statsmodels
numpy/numpy
MattPD/cpplinks
AndrewAnnex/SpiceyPy
pierricgimmig/orbitprofiler
vagarenko/static-tensor
id-Software/DOOM
ROCm-Developer-Tools/HIP
jhidding/scam
jhidding/chez-glfw
OPM/IFEM
mattdesl/webgl-lines
lexi-lambda/hackett
jwiegley/emacs-async
emacs-helm/helm
embree/embree
GPUOpen-LibrariesAndSDKs/AGS_SDK
GPUOpen-LibrariesAndSDKs/MLAA11
GPUOpen-LibrariesAndSDKs/Anvil
GPUOpen-LibrariesAndSDKs/RadeonProRender-Baikal
KhronosGroup/glslang
tyt2y3/vaserenderer
pytorch/pytorch
syl20bnr/spacemacs
tkf/emacs-ipython-notebook
pocl/pocl
IFCA/opencl
drmeister/clasp
wedesoft/aiscm
clojure-emacs/cider
apache/kafka
gpu/JOCL
uncomplicate/neanderthal
uncomplicate/clojurecl
djcb/mu
mwitmer/guile-wm
zv/SICP-guile
pypa/warehouse
akka/akka
gaverhae/okku
functional-koans/clojure-koans
deeplearning4j/deeplearning4j
LightTable/LightTable
ashinn/chibi-scheme
jwbuurlage/category-theory-programmers
clojure/clojure
JonyEpsilon/gorilla-repl
w0rp/ale
leventov/yarr
KhronosGroup/SPIRV-Tools
google/clspv
wingo/fibers
tmate-io/tmate
YuAo/Vivid
fivethirtyeight/data
ocaml/ocaml
cisco/ChezScheme
erlang/otp
micropython/micropython
python/cpython
haskus/haskus-system
glumpy/glumpy
pandas-dev/pandas
incanter/incanter
pydata/numexpr
skosch/Crimson
programmerjake/vulkan-cpu
Microsoft/PTVS
latex3/latex3
MersenneTwister-Lab/SFMT
flababah/cpuid.py
FlightDataServices/PyCPUID
rabauke/trng4
MersenneTwister-Lab/dSFMT
jupyterhub/jupyterhub
FlorianRhiem/pyGLFW
TRIQS/triqs
SpaceVim/SpaceVim
boostcon/cppnow_presentations_2017
pypa/twine
birsoyo/conan-visualstudio
UoB-HPC/BabelStream
Niko40/Vulkan-API-Tutorials
Microsoft/GVFS
